71581433
  -OEChem-05302500573D

 27 29  0     0  0  0  0  0  0999 V2000
    0.1264   -0.4680   -0.9762 N   0  0  0  0  0  0  0  0  0  0  0  0
    1.3146    0.0791   -1.2792 N   0  0  0  0  0  0  0  0  0  0  0  0
   -4.2715   -0.5059    0.4552 N   0  0  0  0  0  0  0  0  0  0  0  0
   -0.8506    1.5341   -0.1069 N   0  0  0  0  0  0  0  0  0  0  0  0
   -3.1585    1.6329    0.6766 N   0  0  0  0  0  0  0  0  0  0  0  0
   -4.0197   -1.7578    0.0296 N   0  0  0  0  0  0  0  0  0  0  0  0
   -2.1812   -0.4209   -0.2068 C   0  0  0  0  0  0  0  0  0  0  0  0
   -0.9684    0.2232   -0.4277 C   0  0  0  0  0  0  0  0  0  0  0  0
   -3.2053    0.3351    0.3362 C   0  0  0  0  0  0  0  0  0  0  0  0
   -2.7453   -1.6996   -0.3723 C   0  0  0  0  0  0  0  0  0  0  0  0
    2.4860   -0.0525   -0.5158 C   0  0  0  0  0  0  0  0  0  0  0  0
    3.6802    0.5086   -0.9683 C   0  0  0  0  0  0  0  0  0  0  0  0
    2.4553   -0.7446    0.6947 C   0  0  0  0  0  0  0  0  0  0  0  0
   -1.9375    2.1487    0.4178 C   0  0  0  0  0  0  0  0  0  0  0  0
    4.8438    0.3776   -0.2102 C   0  0  0  0  0  0  0  0  0  0  0  0
    3.6188   -0.8756    1.4529 C   0  0  0  0  0  0  0  0  0  0  0  0
    4.8130   -0.3145    1.0004 C   0  0  0  0  0  0  0  0  0  0  0  0
   -0.0057   -1.4461   -1.2086 H   0  0  0  0  0  0  0  0  0  0  0  0
   -2.2858   -2.5943   -0.7680 H   0  0  0  0  0  0  0  0  0  0  0  0
    1.3807    0.5855   -2.1552 H   0  0  0  0  0  0  0  0  0  0  0  0
   -5.1941   -0.2961    0.8153 H   0  0  0  0  0  0  0  0  0  0  0  0
    3.7177    1.0505   -1.9099 H   0  0  0  0  0  0  0  0  0  0  0  0
    1.5413   -1.1930    1.0747 H   0  0  0  0  0  0  0  0  0  0  0  0
   -1.8086    3.1975    0.6630 H   0  0  0  0  0  0  0  0  0  0  0  0
    5.7736    0.8145   -0.5625 H   0  0  0  0  0  0  0  0  0  0  0  0
    3.5953   -1.4143    2.3957 H   0  0  0  0  0  0  0  0  0  0  0  0
    5.7189   -0.4166    1.5908 H   0  0  0  0  0  0  0  0  0  0  0  0
  1  2  1  0  0  0  0
  1  8  1  0  0  0  0
  1 18  1  0  0  0  0
  2 11  1  0  0  0  0
  2 20  1  0  0  0  0
  3  6  1  0  0  0  0
  3  9  1  0  0  0  0
  3 21  1  0  0  0  0
  4  8  2  0  0  0  0
  4 14  1  0  0  0  0
  5  9  1  0  0  0  0
  5 14  2  0  0  0  0
  6 10  2  0  0  0  0
  7  8  1  0  0  0  0
  7  9  2  0  0  0  0
  7 10  1  0  0  0  0
 10 19  1  0  0  0  0
 11 12  2  0  0  0  0
 11 13  1  0  0  0  0
 12 15  1  0  0  0  0
 12 22  1  0  0  0  0
 13 16  2  0  0  0  0
 13 23  1  0  0  0  0
 14 24  1  0  0  0  0
 15 17  2  0  0  0  0
 15 25  1  0  0  0  0
 16 17  1  0  0  0  0
 16 26  1  0  0  0  0
 17 27  1  0  0  0  0
M  END
> <PUBCHEM_COMPOUND_CID>
71581433

> <PUBCHEM_CONFORMER_RMSD>
0.6

> <PUBCHEM_CONFORMER_DIVERSEORDER>
1
29
30
6
28
16
9
26
19
20
27
22
4
8
23
15
10
18
12
21
13
17
5
3
25
7
2
24
14
11

> <PUBCHEM_MMFF94_PARTIAL_CHARGES>
26
1 -0.5
10 0.14
11 0.1
12 -0.15
13 -0.15
14 0.47
15 -0.15
16 -0.15
17 -0.15
18 0.4
19 0.15
2 -0.5
20 0.4
21 0.27
22 0.15
23 0.15
24 0.15
25 0.15
26 0.15
27 0.15
3 0.3
4 -0.62
5 -0.57
6 -0.71
8 0.41
9 0.11

> <PUBCHEM_EFFECTIVE_ROTOR_COUNT>
3

> <PUBCHEM_PHARMACOPHORE_FEATURES>
9
1 1 donor
1 2 donor
1 3 donor
1 6 acceptor
3 1 4 8 cation
3 4 5 14 cation
5 3 6 7 9 10 rings
6 11 12 13 15 16 17 rings
6 4 5 7 8 9 14 rings

> <PUBCHEM_HEAVY_ATOM_COUNT>
17

> <PUBCHEM_ATOM_DEF_STEREO_COUNT>
0

> <PUBCHEM_ATOM_UDEF_STEREO_COUNT>
0

> <PUBCHEM_BOND_DEF_STEREO_COUNT>
0

> <PUBCHEM_BOND_UDEF_STEREO_COUNT>
0

> <PUBCHEM_ISOTOPIC_ATOM_COUNT>
0

> <PUBCHEM_COMPONENT_COUNT>
1

> <PUBCHEM_CACTVS_TAUTO_COUNT>
13

> <PUBCHEM_CONFORMER_ID>
04443EF900000001

> <PUBCHEM_MMFF94_ENERGY>
41.8246

> <PUBCHEM_FEATURE_SELFOVERLAP>
47.571

> <PUBCHEM_SHAPE_FINGERPRINT>
10366900 7 18131343137459090866
11132069 177 18273220776649278181
11578080 2 17896577630889481117
12107183 9 17686614646104809520
12236239 1 18040999544075047438
13167823 11 18187364316151931954
13214271 11 18060419101613273789
13583140 156 18198880579587662632
13897977 58 18341335560613233876
14289901 80 18411422787043726066
14341114 328 18408325484347617544
14420673 8 17907861696104639550
14849402 71 18262796411057330672
15099037 37 18273216408809917615
15375462 189 18186803603554491130
15653759 3 17989202642449492824
18219364 16 16343692240470472434
19050596 39 18333732407779379424
200 152 17240197742085805900
20432913 95 16805322184807913434
20510252 161 18131078091022165049
20645477 56 16988835103848276084
20645477 70 15719106959921361066
21033648 29 16558742382731587040
21065198 48 18261391118451226160
21650355 55 18413387657435777833
22646028 1 17967811652421362870
22646028 28 18040433291481770602
22854114 59 16917068871195210150
2297311 6 18130521789709760076
2306618 200 18114172004750241893
23175994 123 14634875249315130583
23366157 5 17974011953257661221
23402539 116 18343577469539262455
23503958 25 17489586745106137728
23557571 272 17917446301475641141
23559900 14 18057619676226026822
26918003 58 17530964704479438307
2838139 119 13829026590566139555
3009799 131 18270384063221130687
474 4 17533509078146394252
573450 72 18334855000250122337
602551 16 18059289976360428878
633830 44 13470692559586029228
7097593 13 18045494210534608306
90316 7 18262239910989259989
9882013 296 18333730213103890582

> <PUBCHEM_SHAPE_MULTIPOLES>
319.97
10.09
1.63
1.1
5.05
0.34
0.04
-1.63
2.05
-1.97
0.22
0.94
-0.06
-1.03

> <PUBCHEM_SHAPE_SELFOVERLAP>
705.629

> <PUBCHEM_SHAPE_VOLUME>
169.1

> <PUBCHEM_COORDINATE_TYPE>
2
5
10

$$$$
