118730117
  -OEChem-05302500573D

 35 38  0     0  0  0  0  0  0999 V2000
    2.4726    1.9701   -0.7013 S   0  0  0  0  0  0  0  0  0  0  0  0
   -6.2485    1.3397    0.2477 O   0  5  0  0  0  0  0  0  0  0  0  0
   -4.4287    2.5267    0.5609 O   0  0  0  0  0  0  0  0  0  0  0  0
    3.8325    1.0819   -0.3061 N   0  0  0  0  0  0  0  0  0  0  0  0
    4.4776   -1.1374    0.3628 N   0  0  0  0  0  0  0  0  0  0  0  0
   -4.9990    1.4393    0.3032 N   0  3  0  0  0  0  0  0  0  0  0  0
    5.1669    1.6288   -0.3880 C   0  0  0  0  0  0  0  0  0  0  0  0
    3.6032   -0.2359    0.0594 C   0  0  0  0  0  0  0  0  0  0  0  0
    6.0633    0.7972    0.5289 C   0  0  0  0  0  0  0  0  0  0  0  0
    2.1594   -0.5368    0.0726 C   0  0  0  0  0  0  0  0  0  0  0  0
    5.8817   -0.6970    0.2521 C   0  0  0  0  0  0  0  0  0  0  0  0
    1.4234    0.5841   -0.3246 C   0  0  0  0  0  0  0  0  0  0  0  0
    0.0411    0.5274   -0.3893 C   0  0  0  0  0  0  0  0  0  0  0  0
    1.5494   -1.7334    0.4113 C   0  0  0  0  0  0  0  0  0  0  0  0
   -0.5918   -0.6722   -0.0495 C   0  0  0  0  0  0  0  0  0  0  0  0
    0.1563   -1.7930    0.3472 C   0  0  0  0  0  0  0  0  0  0  0  0
   -2.0354   -0.7617   -0.1084 C   0  0  0  0  0  0  0  0  0  0  0  0
   -2.8147    0.3717    0.1236 C   0  0  0  0  0  0  0  0  0  0  0  0
   -2.6473   -1.9817   -0.3966 C   0  0  0  0  0  0  0  0  0  0  0  0
   -4.2058    0.2853    0.0673 C   0  0  0  0  0  0  0  0  0  0  0  0
   -4.0384   -2.0683   -0.4525 C   0  0  0  0  0  0  0  0  0  0  0  0
   -4.8177   -0.9347   -0.2209 C   0  0  0  0  0  0  0  0  0  0  0  0
    5.1954    2.6790   -0.0754 H   0  0  0  0  0  0  0  0  0  0  0  0
    5.5282    1.5716   -1.4214 H   0  0  0  0  0  0  0  0  0  0  0  0
    5.8030    1.0022    1.5755 H   0  0  0  0  0  0  0  0  0  0  0  0
    7.1115    1.0835    0.3916 H   0  0  0  0  0  0  0  0  0  0  0  0
    6.2549   -0.9503   -0.7471 H   0  0  0  0  0  0  0  0  0  0  0  0
    6.4771   -1.2668    0.9737 H   0  0  0  0  0  0  0  0  0  0  0  0
   -0.5019    1.4027   -0.7319 H   0  0  0  0  0  0  0  0  0  0  0  0
    2.1220   -2.5993    0.7244 H   0  0  0  0  0  0  0  0  0  0  0  0
   -0.3126   -2.7268    0.6470 H   0  0  0  0  0  0  0  0  0  0  0  0
   -2.3486    1.3183    0.3846 H   0  0  0  0  0  0  0  0  0  0  0  0
   -2.0826   -2.8836   -0.6161 H   0  0  0  0  0  0  0  0  0  0  0  0
   -4.5148   -3.0165   -0.6841 H   0  0  0  0  0  0  0  0  0  0  0  0
   -5.8983   -1.0393   -0.2747 H   0  0  0  0  0  0  0  0  0  0  0  0
  1  4  1  0  0  0  0
  1 12  1  0  0  0  0
  2  6  1  0  0  0  0
  3  6  2  0  0  0  0
  4  7  1  0  0  0  0
  4  8  1  0  0  0  0
  5  8  2  0  0  0  0
  5 11  1  0  0  0  0
  6 20  1  0  0  0  0
  7  9  1  0  0  0  0
  7 23  1  0  0  0  0
  7 24  1  0  0  0  0
  8 10  1  0  0  0  0
  9 11  1  0  0  0  0
  9 25  1  0  0  0  0
  9 26  1  0  0  0  0
 10 12  2  0  0  0  0
 10 14  1  0  0  0  0
 11 27  1  0  0  0  0
 11 28  1  0  0  0  0
 12 13  1  0  0  0  0
 13 15  2  0  0  0  0
 13 29  1  0  0  0  0
 14 16  2  0  0  0  0
 14 30  1  0  0  0  0
 15 16  1  0  0  0  0
 15 17  1  0  0  0  0
 16 31  1  0  0  0  0
 17 18  2  0  0  0  0
 17 19  1  0  0  0  0
 18 20  1  0  0  0  0
 18 32  1  0  0  0  0
 19 21  2  0  0  0  0
 19 33  1  0  0  0  0
 20 22  2  0  0  0  0
 21 22  1  0  0  0  0
 21 34  1  0  0  0  0
 22 35  1  0  0  0  0
M  CHG  2   2  -1   6   1
M  END
> <PUBCHEM_COMPOUND_CID>
118730117

> <PUBCHEM_CONFORMER_RMSD>
0.6

> <PUBCHEM_CONFORMER_DIVERSEORDER>
1
4
2
3

> <PUBCHEM_MMFF94_PARTIAL_CHARGES>
26
1 -0.07
10 0.09
11 0.25
12 0.1
13 -0.15
14 -0.15
16 -0.15
18 -0.15
19 -0.15
2 -0.52
20 0.13
21 -0.15
22 -0.15
29 0.15
3 -0.52
30 0.15
31 0.15
32 0.15
33 0.15
34 0.15
35 0.15
4 -0.45
5 -0.7
6 0.91
7 0.37
8 0.41

> <PUBCHEM_EFFECTIVE_ROTOR_COUNT>
2.8

> <PUBCHEM_PHARMACOPHORE_FEATURES>
8
1 2 acceptor
1 2 anion
1 3 acceptor
3 4 5 8 cation
5 1 4 8 10 12 rings
6 10 12 13 14 15 16 rings
6 17 18 19 20 21 22 rings
6 4 5 7 8 9 11 rings

> <PUBCHEM_HEAVY_ATOM_COUNT>
22

> <PUBCHEM_ATOM_DEF_STEREO_COUNT>
0

> <PUBCHEM_ATOM_UDEF_STEREO_COUNT>
0

> <PUBCHEM_BOND_DEF_STEREO_COUNT>
0

> <PUBCHEM_BOND_UDEF_STEREO_COUNT>
0

> <PUBCHEM_ISOTOPIC_ATOM_COUNT>
0

> <PUBCHEM_COMPONENT_COUNT>
1

> <PUBCHEM_CACTVS_TAUTO_COUNT>
1

> <PUBCHEM_CONFORMER_ID>
0713AD8500000001

> <PUBCHEM_MMFF94_ENERGY>
69.3268

> <PUBCHEM_FEATURE_SELFOVERLAP>
40.824

> <PUBCHEM_SHAPE_FINGERPRINT>
10595046 47 18338795744687950974
10906281 52 18114195163603953766
11089746 13 18131342012246146549
12107183 9 17977663113091705946
12236239 1 18412543227968098394
12403260 363 18264768946503840893
13073987 5 18336826489276721122
13167372 99 18410855443449602128
13167823 11 18410008883472623374
13177829 73 18411419501119528824
13583140 156 17132108073953367846
13785724 45 17905885873809779202
14251764 18 18333450966840549783
14466204 15 18411135822888249816
14790565 3 18408325510043548644
15183329 4 18408039615497874844
15196674 1 18409166636343773734
15475509 8 18336279946741604902
15788980 27 18335704961409059434
1601671 61 18411134723608184684
17844677 252 18338524147840310026
200 152 18343018938505918502
20281389 69 18335138678782835281
20511986 3 18338783576760426944
21033648 29 17702929435755586034
21065198 48 18408599271190677219
21130935 74 18410567414865033818
21236236 1 18411698807559702695
21267235 1 18336833082273313231
21304253 335 18335143128706337244
21421861 104 17896592882771509930
21709351 56 18335696165358073375
23081809 10 18187364367860299142
23402539 116 18342735243062407308
23402655 69 18412543232104855782
23522609 53 17969244303525713628
23536379 177 18412543223794470058
23559900 14 18201432610268268312
23569943 247 17169533126687093634
25147074 1 18337936931797095627
2916195 48 18130218376219540560
300161 21 18343016696527435902
3004659 81 18334859420763214238
335352 9 18408323268286982718
34797466 226 17202773729642047972
34934 24 18411697664908621207
350125 39 18408884048833708253
3545911 37 18341895173661720851
3633792 109 18115008767949419319
3680242 22 18113610158845872410
38695281 34 18343019977951866710
397830 11 14129919118421760860
4073 2 18041846224485885778
4214541 1 18411136952659281613
474 4 17968098667842588397
5104073 3 18261107517317940146
542803 24 18412543227804542110
54446538 1 18410572928863796541
57724786 102 17095816519736471132
59755656 215 18200319814623072558
59755656 520 17458345251642287635
6327066 14 18266172826334470501
6328613 192 18260837055086275676
633830 44 18333448768086865390
67856867 119 18267020737923296348

> <PUBCHEM_SHAPE_MULTIPOLES>
429.92
14.54
2.27
0.72
1.12
0.36
-0.03
4.47
1.41
-1.52
0.02
0.07
0.05
-1.27

> <PUBCHEM_SHAPE_SELFOVERLAP>
945.293

> <PUBCHEM_SHAPE_VOLUME>
234.8

> <PUBCHEM_COORDINATE_TYPE>
2
5
10

$$$$
